pf_IEEE14bus.dss
Clear 
Set DefaultBaseFrequency=60 
!14 bus transmission system
new circuit.14bus basekv=69 pu=1.06 phases=3 bus1=SourceBus Angle=0 MVASC3=210000

! LINE DEFINITIONS 
New Line.1 Phases=3 Bus1=2 Bus2=5 R1=2.7114 X1=8.2784 B1=0.0007 
New Line.2 Phases=3 Bus1=7 Bus2=9 X1=0.2095 
New Line.3 Phases=3 Bus1=SourceBus Bus2=2 R1=0.9227 X1=2.8171 B1=0.0011 
New Line.5 Phases=3 Bus1=3 Bus2=2 R1=2.2372 X1=9.4254 B1=0.00091
New Line.6 Phases=3 Bus1=3 Bus2=4 R1=3.1903 X1=8.1427 B1=0.00073
New Line.7 Phases=3 Bus1=SourceBus Bus2=5 R1=2.5724 X1=10.6189 B1=0.00103 
New Line.8 Phases=3 Bus1=5 Bus2=4 R1=0.6356 X1=2.0049 B1=0.000269
New Line.9 Phases=3 Bus1=2 Bus2=4 R1=2.7666 X1=8.3946 B1=0.000786 
New Line.10 Phases=3 Bus1=6 Bus2=12 R1=0.2341 X1=0.4872 
New Line.11 Phases=3 Bus1=12 Bus2=13 R1=0.4207 X1=0.3807
New Line.12 Phases=3 Bus1=6 Bus2=13 R1=0.1260 X1=0.2481
New Line.13 Phases=3 Bus1=6 Bus2=11 R1=0.1809 X1=0.3788
New Line.14 Phases=3 Bus1=11 Bus2=10 R1=0.1563 X1=0.3658 
New Line.15 Phases=3 Bus1=9 Bus2=10 R1=0.0606 X1=0.1609 
New Line.16 Phases=3 Bus1=9 Bus2=14 R1=0.2421 X1=0.5149
New Line.17 Phases=3 Bus1=14 Bus2=13 R1=0.3255 X1=0.6628

!Transmission system TRANSFORMER DEFINITION 
New Transformer.t2 Phases=3 Windings=2 XHL=25.2020 tap=0.932
~ wdg=1 bus=5 kv=69 kva=100000 
~ wdg=2 bus=6 kv=13.8 kva=100000

New Transformer.t3 Phases=3 Windings=2 XHL=55.6180 tap=0.969
~ wdg=1 bus=4 kv=69 kva=100000 
~ wdg=2 bus=9 kv=13.8 kva=100000

New Transformer.t4 Phases=3 Windings=2 XHL=20.9120 tap=0.978
~ wdg=1 bus=4 kv=69 kva=100000 
~ wdg=2 bus=7 kv=13.8 kva=100000

New Transformer.t5 Phases=3 Windings=2 XHL=17.6150 tap=0.98
~ wdg=1 bus=8 kv=18 kva=100000 
~ wdg=2 bus=7 kv=13.8 kva=100000

!transmission system LOAD DEFINITIONS 
!New Load.11 Bus1=11 Phases=3 Model=1 kV=13.8 kW=3500 kvar=1800 Vmaxpu=1.2 Vminpu=0.8
New Load.11 Bus1=11 Phases=3 Model=1 kV=13.8 xfKva=3935.7   

New Load.13 Bus1=13 Phases=3 Model=1 kV=13.8 kW=13500 kvar=5800 Vmaxpu=1.2 Vminpu=0.8
New Load.3 Bus1=3 Phases=3 Model=1 kV=69 kW=94200 kvar=19000 Vmaxpu=1.2 Vminpu=0.8
New Load.5 Bus1=5 Phases=3 Model=1 kV=69 kW=7600 kvar=1600 Vmaxpu=1.2 Vminpu=0.8
New Load.2 Bus1=2 Phases=3 Model=1 kV=69 kW=21700 kvar=12700 Vmaxpu=1.2 Vminpu=0.8
New Load.6 Bus1=6 Phases=3 Model=1 kV=13.8 kW=11200 kvar=7500 Vmaxpu=1.2 Vminpu=0.8
New Load.4 Bus1=4 Phases=3 Model=1 kV=69 kW=47800 kvar=-3900 Vmaxpu=1.2 Vminpu=0.8
New Load.14 Bus1=14 Phases=3 Model=1 kV=13.8 kW=14900 kvar=5000 Vmaxpu=1.2 Vminpu=0.8
New Load.12 Bus1=12 Phases=3 Model=1 kV=13.8 kW=6100 kvar=1600 Vmaxpu=1.2 Vminpu=0.8
New Load.9 Bus1=9 Phases=3 Model=1 kV=13.8 kW=29500 kvar=16600 Vmaxpu=1.2 Vminpu=0.8
New Load.10 Bus1=10 Phases=3 Model=1 kV=13.8 kW=9000 kvar=5800 Vmaxpu=1.2 Vminpu=0.8

!transmission system generator DEFINITIONS 
!New Generator.2 Bus1=2 kV=69 kW=40000 MVA=100 Model=3 Vpu=1.045 Maxkvar=50000 Minkvar=-40000 Vmaxpu=1.2 Vminpu=0.8
!New Generator.3 Bus1=3 kV=69 kW=0 MVA=100 Model=3 Vpu=1.01 Maxkvar=40000 Minkvar=0 Vmaxpu=1.2 Vminpu=0.8
!New Generator.6 Bus1=6 kV=13.8 kW=0 MVA=100 Model=3 Vpu=1.07 Maxkvar=24000 Minkvar=-6000 Vmaxpu=1.2 Vminpu=0.8
!New Generator.8 Bus1=8 kV=18 kW=0 MVA=100 Model=3 Vpu=1.09 Maxkvar=24000 Minkvar=-6000 Vmaxpu=1.2 Vminpu=0.8

Set Voltagebases=[69, 18, 13.8]
CalcVoltageBases

Solve
Show Voltage LN Nodes
Show Powers kVA Elem
Show Currents Elem

!Export Voltages FileVabc14_end.CSV
!Export Currents FileIabc14_end.CSV
